static/analyses/New Ref Feed Test/main.glm
clock {
timezone EST+8EDT;
timestamp '2000-01-01 0:00:00';
stoptime '2000-01-01 09:36:00';
starttime '2000-01-01 00:00:00';
};

#set profiler=1 module tape;
module powerflow {
solver_method NR;
default_maximum_voltage_error 1e-6;
};

object regulator:1 {
phases ABCN;
from R3-12-47-3_node_2001;
name R3-12-47-3_reg_1;
to R3-12-47-3_meter_109;
configuration feeder_reg_cfg;
};

object regulator:2 {
phases ABCN;
from R3-12-47-3_node_871_2;
name R3-12-47-3_reg_2;
to R3-12-47-3_node_885;
configuration voltage_reg_cfg;
};

object regulator_configuration:12602 {
Control OUTPUT_VOLTAGE;
raise_taps 16;
name feeder_reg_cfg;
band_center 7500.0;
tap_pos_A 0;
tap_pos_B 0;
connect_type WYE_WYE;
time_delay 30;
regulation 0.10;
lower_taps 16;
tap_pos_C 0;
band_width 120;
};

object regulator_configuration:12603 {
Control OUTPUT_VOLTAGE;
raise_taps 16;
name voltage_reg_cfg;
band_center 7500.0;
tap_pos_A 0;
tap_pos_B 0;
connect_type WYE_WYE;
time_delay 30;
regulation 0.10;
lower_taps 16;
tap_pos_C 0;
band_width 120;
};

object capacitor:12598 {
control VOLT;
phases ABCN;
capacitor_A 0.3 MVAr;
name R3-12-47-3_cap_1;
parent R3-12-47-3_node_518;
capacitor_C 0.3 MVAr;
capacitor_B 0.3 MVAr;
pt_phase A;
time_delay 30.0;
nominal_voltage 7200;
cap_nominal_voltage 7200;
voltage_set_low 7100;
control_level INDIVIDUAL;
phases_connected ABC;
dwell_time 30.0;
voltage_set_high 7300;
};

object capacitor:12599 {
control VOLT;
phases ABCN;
capacitor_A 0.2 MVAr;
name R3-12-47-3_cap_2;
parent R3-12-47-3_node_1988;
capacitor_C 0.2 MVAr;
capacitor_B 0.2 MVAr;
pt_phase A;
time_delay 30.0;
nominal_voltage 7200;
cap_nominal_voltage 7200;
voltage_set_low 7100;
control_level INDIVIDUAL;
phases_connected ABC;
dwell_time 30.0;
voltage_set_high 7300;
};

object fuse:12437 {
status CLOSED;
phases BCN;
from R3-12-47-3_node_12;
name R3-12-47-3_fuse_1;
current_limit 50000;
to R3-12-47-3_node_13;
};

object fuse:12438 {
status CLOSED;
phases ABCN;
from R3-12-47-3_node_4;
name R3-12-47-3_fuse_2;
current_limit 50000;
to R3-12-47-3_node_16;
};

object fuse:12439 {
status CLOSED;
phases BCN;
from R3-12-47-3_node_32;
name R3-12-47-3_fuse_3;
current_limit 50000;
to R3-12-47-3_node_33;
};

object fuse:12440 {
status CLOSED;
phases BCN;
from R3-12-47-3_node_87;
name R3-12-47-3_fuse_4;
current_limit 50000;
to R3-12-47-3_node_88;
};

object fuse:12441 {
status CLOSED;
phases BCN;
from R3-12-47-3_node_99;
name R3-12-47-3_fuse_5;
current_limit 50000;
to R3-12-47-3_node_100;
};

object fuse:12442 {
status CLOSED;
phases ABCN;
from R3-12-47-3_node_132;
name R3-12-47-3_fuse_6;
current_limit 50000;
to R3-12-47-3_node_133;
};

object fuse:12443 {
status CLOSED;
phases ABCN;
from R3-12-47-3_node_151;
name R3-12-47-3_fuse_7;
current_limit 50000;
to R3-12-47-3_node_152;
};

object fuse:12444 {
status CLOSED;
phases ACN;
from R3-12-47-3_node_163;
name R3-12-47-3_fuse_8;
current_limit 50000;
to R3-12-47-3_node_164;
};

object fuse:12445 {
status CLOSED;
phases ACN;
from R3-12-47-3_node_176;
name R3-12-47-3_fuse_9;
current_limit 50000;
to R3-12-47-3_node_177;
};

object fuse:12446 {
status CLOSED;
phases ACN;
from R3-12-47-3_node_188;
name R3-12-47-3_fuse_10;
current_limit 50000;
to R3-12-47-3_node_189;
};

object fuse:12447 {
status CLOSED;
phases ABCN;
from R3-12-47-3_node_224;
name R3-12-47-3_fuse_11;
current_limit 50000;
to R3-12-47-3_node_225;
};

object fuse:12448 {
status CLOSED;
phases ACN;
from R3-12-47-3_node_243;
name R3-12-47-3_fuse_12;
current_limit 50000;
to R3-12-47-3_node_244;
};

object fuse:12449 {
status CLOSED;
phases AN;
from R3-12-47-3_node_252;
name R3-12-47-3_fuse_13;
current_limit 50000;
to R3-12-47-3_node_253;
};

object fuse:12450 {
status CLOSED;
phases CN;
from R3-12-47-3_node_266;
name R3-12-47-3_fuse_14;
current_limit 50000;
to R3-12-47-3_node_279;
};

object fuse:12451 {
status CLOSED;
phases ABCN;
from R3-12-47-3_node_287;
name R3-12-47-3_fuse_15;
current_limit 50000;
to R3-12-47-3_node_288;
};

object fuse:12452 {
status CLOSED;
phases ACN;
from R3-12-47-3_node_280;
name R3-12-47-3_fuse_16;
current_limit 50000;
to R3-12-47-3_node_296;
};

object fuse:12453 {
status CLOSED;
phases ABCN;
from R3-12-47-3_node_302;
name R3-12-47-3_fuse_17;
current_limit 50000;
to R3-12-47-3_node_303;
};

object fuse:12454 {
status CLOSED;
phases ACN;
from R3-12-47-3_node_305;
name R3-12-47-3_fuse_18;
current_limit 50000;
to R3-12-47-3_node_306;
};

object fuse:12455 {
status CLOSED;
phases ABCN;
from R3-12-47-3_node_319;
name R3-12-47-3_fuse_19;
current_limit 50000;
to R3-12-47-3_node_320;
};

object fuse:12456 {
status CLOSED;
phases ABCN;
from R3-12-47-3_node_324;
name R3-12-47-3_fuse_20;
current_limit 50000;
to R3-12-47-3_node_325;
};

object fuse:12457 {
status CLOSED;
phases BN;
from R3-12-47-3_node_310;
name R3-12-47-3_fuse_21;
current_limit 50000;
to R3-12-47-3_node_326;
};

object fuse:12458 {
status CLOSED;
phases ABN;
from R3-12-47-3_node_343;
name R3-12-47-3_fuse_22;
current_limit 50000;
to R3-12-47-3_node_344;
};

object fuse:12459 {
status CLOSED;
phases AN;
from R3-12-47-3_node_357;
name R3-12-47-3_fuse_23;
current_limit 50000;
to R3-12-47-3_node_358;
};

object fuse:12460 {
status CLOSED;
phases AN;
from R3-12-47-3_node_364;
name R3-12-47-3_fuse_24;
current_limit 50000;
to R3-12-47-3_node_365;
};

object fuse:12461 {
status CLOSED;
phases BCN;
from R3-12-47-3_node_368;
name R3-12-47-3_fuse_25;
current_limit 50000;
to R3-12-47-3_node_369;
};

object fuse:12462 {
status CLOSED;
phases BCN;
from R3-12-47-3_node_372;
name R3-12-47-3_fuse_26;
current_limit 50000;
to R3-12-47-3_node_373;
};

object fuse:12463 {
status CLOSED;
phases CN;
from R3-12-47-3_node_379;
name R3-12-47-3_fuse_27;
current_limit 50000;
to R3-12-47-3_node_380;
};

object fuse:12464 {
status CLOSED;
phases ACN;
from R3-12-47-3_node_406;
name R3-12-47-3_fuse_28;
current_limit 50000;
to R3-12-47-3_node_407;
};

object fuse:12465 {
status CLOSED;
phases ABN;
from R3-12-47-3_node_425;
name R3-12-47-3_fuse_29;
current_limit 50000;
to R3-12-47-3_node_426;
};

object fuse:12466 {
status CLOSED;
phases ACN;
from R3-12-47-3_node_443;
name R3-12-47-3_fuse_30;
current_limit 50000;
to R3-12-47-3_node_444;
};

object fuse:12467 {
status CLOSED;
phases ABCN;
from R3-12-47-3_node_459;
name R3-12-47-3_fuse_31;
current_limit 50000;
to R3-12-47-3_node_460;
};

object fuse:12468 {
status CLOSED;
phases ACN;
from R3-12-47-3_node_486;
name R3-12-47-3_fuse_32;
current_limit 50000;
to R3-12-47-3_node_487;
};

object fuse:12469 {
status CLOSED;
phases ACN;
from R3-12-47-3_node_495;
name R3-12-47-3_fuse_33;
current_limit 50000;
to R3-12-47-3_node_496;
};

object fuse:12470 {
status CLOSED;
phases BCN;
from R3-12-47-3_node_498;
name R3-12-47-3_fuse_34;
current_limit 50000;
to R3-12-47-3_node_499;
};

object fuse:12471 {
status CLOSED;
phases ABN;
from R3-12-47-3_node_513;
name R3-12-47-3_fuse_35;
current_limit 50000;
to R3-12-47-3_node_514;
};

object fuse:12472 {
status CLOSED;
phases ABN;
from R3-12-47-3_node_535;
name R3-12-47-3_fuse_36;
current_limit 50000;
to R3-12-47-3_node_536;
};

object fuse:12473 {
status CLOSED;
phases ABN;
from R3-12-47-3_node_554;
name R3-12-47-3_fuse_37;
current_limit 50000;
to R3-12-47-3_node_555;
};

object fuse:12474 {
status CLOSED;
phases ABN;
from R3-12-47-3_node_569;
name R3-12-47-3_fuse_38;
current_limit 50000;
to R3-12-47-3_node_570;
};

object fuse:12475 {
status CLOSED;
phases ABN;
from R3-12-47-3_node_597;
name R3-12-47-3_fuse_39;
current_limit 50000;
to R3-12-47-3_node_598;
};

object fuse:12476 {
status CLOSED;
phases BCN;
from R3-12-47-3_node_612;
name R3-12-47-3_fuse_40;
current_limit 50000;
to R3-12-47-3_node_613;
};

object fuse:12477 {
status CLOSED;
phases ACN;
from R3-12-47-3_node_619;
name R3-12-47-3_fuse_41;
current_limit 50000;
to R3-12-47-3_node_620;
};

object fuse:12478 {
status CLOSED;
phases ACN;
from R3-12-47-3_node_629;
name R3-12-47-3_fuse_42;
current_limit 50000;
to R3-12-47-3_node_630;
};

object fuse:12479 {
status CLOSED;
phases ACN;
from R3-12-47-3_node_644;
name R3-12-47-3_fuse_43;
current_limit 50000;
to R3-12-47-3_node_645;
};

object fuse:12480 {
status CLOSED;
phases ABCN;
from R3-12-47-3_node_704;
name R3-12-47-3_fuse_44;
current_limit 50000;
to R3-12-47-3_node_705;
};

object fuse:12481 {
status CLOSED;
phases ABCN;
from R3-12-47-3_node_715;
name R3-12-47-3_fuse_45;
current_limit 50000;
to R3-12-47-3_node_716;
};

object fuse:12482 {
status CLOSED;
phases ABCN;
from R3-12-47-3_node_712;
name R3-12-47-3_fuse_46;
current_limit 50000;
to R3-12-47-3_node_724;
};

object fuse:12483 {
status CLOSED;
phases ACN;
from R3-12-47-3_node_750;
name R3-12-47-3_fuse_47;
current_limit 50000;
to R3-12-47-3_node_751;
};

object fuse:12484 {
status CLOSED;
phases ACN;
from R3-12-47-3_node_762;
name R3-12-47-3_fuse_48;
current_limit 50000;
to R3-12-47-3_node_763;
};

object fuse:12485 {
status CLOSED;
phases ACN;
from R3-12-47-3_node_766;
name R3-12-47-3_fuse_49;
current_limit 50000;
to R3-12-47-3_node_767;
};

object fuse:12486 {
status CLOSED;
phases ABCN;
from R3-12-47-3_node_700;
name R3-12-47-3_fuse_50;
current_limit 50000;
to R3-12-47-3_node_779;
};

object fuse:12487 {
status CLOSED;
phases ACN;
from R3-12-47-3_node_783;
name R3-12-47-3_fuse_51;
current_limit 50000;
to R3-12-47-3_node_784;
};

object fuse:12488 {
status CLOSED;
phases ACN;
from R3-12-47-3_node_787;
name R3-12-47-3_fuse_52;
current_limit 50000;
to R3-12-47-3_node_788;
};

object fuse:12489 {
status CLOSED;
phases ACN;
from R3-12-47-3_node_792;
name R3-12-47-3_fuse_53;
current_limit 50000;
to R3-12-47-3_node_793;
};

object fuse:12490 {
status CLOSED;
phases BN;
from R3-12-47-3_node_796;
name R3-12-47-3_fuse_54;
current_limit 50000;
to R3-12-47-3_node_808;
};

object fuse:12491 {
status CLOSED;
phases AN;
from R3-12-47-3_node_811;
name R3-12-47-3_fuse_55;
current_limit 50000;
to R3-12-47-3_node_812;
};

object fuse:12492 {
status CLOSED;
phases ACN;
from R3-12-47-3_node_820;
name R3-12-47-3_fuse_56;
current_limit 50000;
to R3-12-47-3_node_821;
};

object fuse:12493 {
status CLOSED;
phases ACN;
from R3-12-47-3_node_829;
name R3-12-47-3_fuse_57;
current_limit 50000;
to R3-12-47-3_node_830;
};

object fuse:12494 {
status CLOSED;
phases ACN;
from R3-12-47-3_node_837;
name R3-12-47-3_fuse_58;
current_limit 50000;
to R3-12-47-3_node_838;
};

object fuse:12495 {
status CLOSED;
phases ACN;
from R3-12-47-3_node_859;
name R3-12-47-3_fuse_59;
current_limit 50000;
to R3-12-47-3_node_860;
};

object fuse:12496 {
status CLOSED;
phases ABN;
from R3-12-47-3_node_867;
name R3-12-47-3_fuse_60;
current_limit 50000;
to R3-12-47-3_node_868;
};

object fuse:12497 {
status CLOSED;
phases ACN;
from R3-12-47-3_node_809;
name R3-12-47-3_fuse_61;
current_limit 50000;
to R3-12-47-3_node_870;
};

object fuse:12498 {
status CLOSED;
phases ABN;
from R3-12-47-3_node_880;
name R3-12-47-3_fuse_62;
current_limit 50000;
to R3-12-47-3_node_881;
};

object fuse:12499 {
status CLOSED;
phases ABCN;
from R3-12-47-3_node_890;
name R3-12-47-3_fuse_63;
current_limit 50000;
to R3-12-47-3_node_891;
};

object fuse:12500 {
status CLOSED;
phases ABN;
from R3-12-47-3_node_895;
name R3-12-47-3_fuse_64;
current_limit 50000;
to R3-12-47-3_node_896;
};

object fuse:12501 {
status CLOSED;
phases ABN;
from R3-12-47-3_node_903;
name R3-12-47-3_fuse_65;
current_limit 50000;
to R3-12-47-3_node_904;
};

object fuse:12502 {
status CLOSED;
phases ABCN;
from R3-12-47-3_node_907;
name R3-12-47-3_fuse_66;
current_limit 50000;
to R3-12-47-3_node_908;
};

object fuse:12503 {
status CLOSED;
phases ABCN;
from R3-12-47-3_node_913;
name R3-12-47-3_fuse_67;
current_limit 50000;
to R3-12-47-3_node_914;
};

object fuse:12504 {
status CLOSED;
phases BCN;
from R3-12-47-3_node_925;
name R3-12-47-3_fuse_68;
current_limit 50000;
to R3-12-47-3_node_926;
};

object fuse:12505 {
status CLOSED;
phases BCN;
from R3-12-47-3_node_930;
name R3-12-47-3_fuse_69;
current_limit 50000;
to R3-12-47-3_node_931;
};

object fuse:12506 {
status CLOSED;
phases BCN;
from R3-12-47-3_node_945;
name R3-12-47-3_fuse_70;
current_limit 50000;
to R3-12-47-3_node_946;
};

object fuse:12507 {
status CLOSED;
phases BCN;
from R3-12-47-3_node_949;
name R3-12-47-3_fuse_71;
current_limit 50000;
to R3-12-47-3_node_950;
};

object fuse:12508 {
status CLOSED;
phases BCN;
from R3-12-47-3_node_958;
name R3-12-47-3_fuse_72;
current_limit 50000;
to R3-12-47-3_node_959;
};

object fuse:12509 {
status CLOSED;
phases ACN;
from R3-12-47-3_node_971;
name R3-12-47-3_fuse_73;
current_limit 50000;
to R3-12-47-3_node_972;
};

object fuse:12510 {
status CLOSED;
phases BCN;
from R3-12-47-3_node_980;
name R3-12-47-3_fuse_74;
current_limit 50000;
to R3-12-47-3_node_981;
};

object fuse:12511 {
status CLOSED;
phases ABCN;
from R3-12-47-3_node_994;
name R3-12-47-3_fuse_75;
current_limit 50000;
to R3-12-47-3_node_1014;
};

object fuse:12512 {
status CLOSED;
phases BCN;
from R3-12-47-3_node_1017;
name R3-12-47-3_fuse_76;
current_limit 50000;
to R3-12-47-3_node_1018;
};

object fuse:12513 {
status CLOSED;
phases ABN;
from R3-12-47-3_node_1037;
name R3-12-47-3_fuse_77;
current_limit 50000;
to R3-12-47-3_node_1038;
};

object fuse:12514 {
status CLOSED;
phases ABN;
from R3-12-47-3_node_1047;
name R3-12-47-3_fuse_78;
current_limit 50000;
to R3-12-47-3_node_1048;
};

object fuse:12515 {
status CLOSED;
phases ABN;
from R3-12-47-3_node_1049;
name R3-12-47-3_fuse_79;
current_limit 50000;
to R3-12-47-3_node_1050;
};

object fuse:12516 {
status CLOSED;
phases BCN;
from R3-12-47-3_node_1065;
name R3-12-47-3_fuse_80;
current_limit 50000;
to R3-12-47-3_node_1066;
};

object fuse:12517 {
status CLOSED;
phases ABCN;
from R3-12-47-3_node_1085;
name R3-12-47-3_fuse_81;
current_limit 50000;
to R3-12-47-3_node_1086;
};

object fuse:12518 {
status CLOSED;
phases ABN;
from R3-12-47-3_node_1129;
name R3-12-47-3_fuse_82;
current_limit 50000;
to R3-12-47-3_node_1130;
};

object fuse:12519 {
status CLOSED;
phases ABN;
from R3-12-47-3_node_1133;
name R3-12-47-3_fuse_83;
current_limit 50000;
to R3-12-47-3_node_1134;
};

object fuse:12520 {
status CLOSED;
phases ABN;
from R3-12-47-3_node_1156;
name R3-12-47-3_fuse_84;
current_limit 50000;
to R3-12-47-3_node_1157;
};

object fuse:12521 {
status CLOSED;
phases ABN;
from R3-12-47-3_node_1163;
name R3-12-47-3_fuse_85;
current_limit 50000;
to R3-12-47-3_node_1164;
};

object fuse:12522 {
status CLOSED;
phases ABN;
from R3-12-47-3_node_1126;
name R3-12-47-3_fuse_86;
current_limit 50000;
to R3-12-47-3_node_1174;
};

object fuse:12523 {
status CLOSED;
phases BCN;
from R3-12-47-3_node_1217;
name R3-12-47-3_fuse_87;
current_limit 50000;
to R3-12-47-3_node_1218;
};

object fuse:12524 {
status CLOSED;
phases ABCN;
from R3-12-47-3_node_1227;
name R3-12-47-3_fuse_88;
current_limit 50000;
to R3-12-47-3_node_1228;
};

object fuse:12525 {
status CLOSED;
phases BCN;
from R3-12-47-3_node_1232;
name R3-12-47-3_fuse_89;
current_limit 50000;
to R3-12-47-3_node_1233;
};

object fuse:12526 {
status CLOSED;
phases BCN;
from R3-12-47-3_node_1266;
name R3-12-47-3_fuse_90;
current_limit 50000;
to R3-12-47-3_node_1267;
};

object fuse:12527 {
status CLOSED;
phases BCN;
from R3-12-47-3_node_1282;
name R3-12-47-3_fuse_91;
current_limit 50000;
to R3-12-47-3_node_1285;
};

object fuse:12528 {
status CLOSED;
phases BCN;
from R3-12-47-3_node_1289;
name R3-12-47-3_fuse_92;
current_limit 50000;
to R3-12-47-3_node_1290;
};

object fuse:12529 {
status CLOSED;
phases ABN;
from R3-12-47-3_node_1304;
name R3-12-47-3_fuse_93;
current_limit 50000;
to R3-12-47-3_node_1305;
};

object fuse:12530 {
status CLOSED;
phases ABN;
from R3-12-47-3_node_1306;
name R3-12-47-3_fuse_94;
current_limit 50000;
to R3-12-47-3_node_1307;
};

object fuse:12531 {
status CLOSED;
phases ACN;
from R3-12-47-3_node_1317;
name R3-12-47-3_fuse_95;
current_limit 50000;
to R3-12-47-3_node_1318;
};

object fuse:12532 {
status CLOSED;
phases ACN;
from R3-12-47-3_node_1324;
name R3-12-47-3_fuse_96;
current_limit 50000;
to R3-12-47-3_node_1325;
};

object fuse:12533 {
status CLOSED;
phases ABCN;
from R3-12-47-3_node_1310;
name R3-12-47-3_fuse_97;
current_limit 50000;
to R3-12-47-3_node_1331;
};

object fuse:12534 {
status CLOSED;
phases ABN;
from R3-12-47-3_node_1356;
name R3-12-47-3_fuse_98;
current_limit 50000;
to R3-12-47-3_node_1357;
};

object fuse:12535 {
status CLOSED;
phases ACN;
from R3-12-47-3_node_1388;
name R3-12-47-3_fuse_99;
current_limit 50000;
to R3-12-47-3_node_1389;
};

object fuse:12536 {
status CLOSED;
phases ABN;
from R3-12-47-3_node_1392;
name R3-12-47-3_fuse_100;
current_limit 50000;
to R3-12-47-3_node_1393;
};

object fuse:12537 {
status CLOSED;
phases ABN;
from R3-12-47-3_node_1399;
name R3-12-47-3_fuse_101;
current_limit 50000;
to R3-12-47-3_node_1400;
};

object fuse:12538 {
status CLOSED;
phases BCN;
from R3-12-47-3_node_1426;
name R3-12-47-3_fuse_102;
current_limit 50000;
to R3-12-47-3_node_1427;
};

object fuse:12539 {
status CLOSED;
phases BCN;
from R3-12-47-3_node_1434;
name R3-12-47-3_fuse_103;
current_limit 50000;
to R3-12-47-3_node_1435;
};

object fuse:12540 {
status CLOSED;
phases ACN;
from R3-12-47-3_node_1420;
name R3-12-47-3_fuse_104;
current_limit 50000;
to R3-12-47-3_node_1436;
};

object fuse:12541 {
status CLOSED;
phases AN;
from R3-12-47-3_node_1450;
name R3-12-47-3_fuse_105;
current_limit 50000;
to R3-12-47-3_node_1451;
};

object fuse:12542 {
status CLOSED;
phases ABCN;
from R3-12-47-3_node_1474;
name R3-12-47-3_fuse_106;
current_limit 50000;
to R3-12-47-3_node_1475;
};

object fuse:12543 {
status CLOSED;
phases ABCN;
from R3-12-47-3_node_1505;
name R3-12-47-3_fuse_107;
current_limit 50000;
to R3-12-47-3_node_1506;
};

object fuse:12544 {
status CLOSED;
phases BCN;
from R3-12-47-3_node_1511;
name R3-12-47-3_fuse_108;
current_limit 50000;
to R3-12-47-3_node_1512;
};

object fuse:12545 {
status CLOSED;
phases ABN;
from R3-12-47-3_node_1523;
name R3-12-47-3_fuse_109;
current_limit 50000;
to R3-12-47-3_node_1524;
};

object fuse:12546 {
status CLOSED;
phases ABN;
from R3-12-47-3_node_1530;
name R3-12-47-3_fuse_110;
current_limit 50000;
to R3-12-47-3_node_1531;
};

object fuse:12547 {
status CLOSED;
phases ABCN;
from R3-12-47-3_node_1542;
name R3-12-47-3_fuse_111;
current_limit 50000;
to R3-12-47-3_node_1543;
};

object fuse:12548 {
status CLOSED;
phases ABCN;
from R3-12-47-3_node_1550;
name R3-12-47-3_fuse_112;
current_limit 50000;
to R3-12-47-3_node_1551;
};

object fuse:12549 {
status CLOSED;
phases ABCN;
from R3-12-47-3_node_1555;
name R3-12-47-3_fuse_113;
current_limit 50000;
to R3-12-47-3_node_1556;
};

object fuse:12550 {
status CLOSED;
phases ABN;
from R3-12-47-3_node_1580;
name R3-12-47-3_fuse_114;
current_limit 50000;
to R3-12-47-3_node_1581;
};

object fuse:12551 {
status CLOSED;
phases ABN;
from R3-12-47-3_node_1588;
name R3-12-47-3_fuse_115;
current_limit 50000;
to R3-12-47-3_node_1589;
};

object fuse:12552 {
status CLOSED;
phases ABN;
from R3-12-47-3_node_1612;
name R3-12-47-3_fuse_116;
current_limit 50000;
to R3-12-47-3_node_1613;
};

object fuse:12553 {
status CLOSED;
phases ABN;
from R3-12-47-3_node_1633;
name R3-12-47-3_fuse_117;
current_limit 50000;
to R3-12-47-3_node_1634;
};

object fuse:12554 {
status CLOSED;
phases ABN;
from R3-12-47-3_node_1650;
name R3-12-47-3_fuse_118;
current_limit 50000;
to R3-12-47-3_node_1651;
};

object fuse:12555 {
status CLOSED;
phases BCN;
from R3-12-47-3_node_1656;
name R3-12-47-3_fuse_119;
current_limit 50000;
to R3-12-47-3_node_1657;
};

object fuse:12556 {
status CLOSED;
phases ABN;
from R3-12-47-3_node_1665;
name R3-12-47-3_fuse_120;
current_limit 50000;
to R3-12-47-3_node_1666;
};

object fuse:12557 {
status CLOSED;
phases ABCN;
from R3-12-47-3_node_1679;
name R3-12-47-3_fuse_121;
current_limit 50000;
to R3-12-47-3_node_1680;
};

object fuse:12558 {
status CLOSED;
phases BCN;
from R3-12-47-3_node_1688;
name R3-12-47-3_fuse_122;
current_limit 50000;
to R3-12-47-3_node_1689;
};

object fuse:12559 {
status CLOSED;
phases BCN;
from R3-12-47-3_node_1699;
name R3-12-47-3_fuse_123;
current_limit 50000;
to R3-12-47-3_node_1701;
};

object fuse:12560 {
status CLOSED;
phases ACN;
from R3-12-47-3_node_1726;
name R3-12-47-3_fuse_124;
current_limit 50000;
to R3-12-47-3_node_1727;
};

object fuse:12561 {
status CLOSED;
phases ABCN;
from R3-12-47-3_node_1731;
name R3-12-47-3_fuse_125;
current_limit 50000;
to R3-12-47-3_node_1732;
};

object fuse:12562 {
status CLOSED;
phases CN;
from R3-12-47-3_node_1723;
name R3-12-47-3_fuse_126;
current_limit 50000;
to R3-12-47-3_node_1736;
};

object fuse:12563 {
status CLOSED;
phases ABN;
from R3-12-47-3_node_1748;
name R3-12-47-3_fuse_127;
current_limit 50000;
to R3-12-47-3_node_1759;
};

object fuse:12564 {
status CLOSED;
phases ABN;
from R3-12-47-3_node_1768;
name R3-12-47-3_fuse_128;
current_limit 50000;
to R3-12-47-3_node_1769;
};

object fuse:12565 {
status CLOSED;
phases AN;
from R3-12-47-3_node_1760;
name R3-12-47-3_fuse_129;
current_limit 50000;
to R3-12-47-3_node_1772;
};

object fuse:12566 {
status CLOSED;
phases ABCN;
from R3-12-47-3_node_1778;
name R3-12-47-3_fuse_130;
current_limit 50000;
to R3-12-47-3_node_1779;
};

object fuse:12567 {
status CLOSED;
phases ABCN;
from R3-12-47-3_node_1781;
name R3-12-47-3_fuse_131;
current_limit 50000;
to R3-12-47-3_node_1782;
};

object fuse:12568 {
status CLOSED;
phases ABCN;
from R3-12-47-3_node_1800;
name R3-12-47-3_fuse_132;
current_limit 50000;
to R3-12-47-3_node_1801;
};

object fuse:12569 {
status CLOSED;
phases ABN;
from R3-12-47-3_node_1822;
name R3-12-47-3_fuse_133;
current_limit 50000;
to R3-12-47-3_node_1823;
};

object fuse:12570 {
status CLOSED;
phases ACN;
from R3-12-47-3_node_1831;
name R3-12-47-3_fuse_134;
current_limit 50000;
to R3-12-47-3_node_1832;
};

object fuse:12571 {
status CLOSED;
phases ABCN;
from R3-12-47-3_node_1712;
name R3-12-47-3_fuse_135;
current_limit 50000;
to R3-12-47-3_node_1833;
};

object fuse:12572 {
status CLOSED;
phases ABCN;
from R3-12-47-3_node_1853;
name R3-12-47-3_fuse_136;
current_limit 50000;
to R3-12-47-3_node_1854;
};

object fuse:12573 {
status CLOSED;
phases BCN;
from R3-12-47-3_node_1872;
name R3-12-47-3_fuse_137;
current_limit 50000;
to R3-12-47-3_node_1873;
};

object fuse:12574 {
status CLOSED;
phases BCN;
from R3-12-47-3_node_1927;
name R3-12-47-3_fuse_138;
current_limit 50000;
to R3-12-47-3_node_1928;
};

object fuse:12575 {
status CLOSED;
phases BCN;
from R3-12-47-3_node_1930;
name R3-12-47-3_fuse_139;
current_limit 50000;
to R3-12-47-3_node_1931;
};

object fuse:12576 {
status CLOSED;
phases BCN;
from R3-12-47-3_node_1978;
name R3-12-47-3_fuse_140;
current_limit 50000;
to R3-12-47-3_node_1979;
};

object line_configuration:24 {
spacing line_spacing:16;
conductor_N overhead_line_conductor:2;
conductor_A overhead_line_conductor:2;
conductor_C overhead_line_conductor:2;
conductor_B overhead_line_conductor:2;
};

object line_configuration:25 {
spacing line_spacing:16;
conductor_N overhead_line_conductor:3;
conductor_A overhead_line_conductor:3;
conductor_C overhead_line_conductor:3;
conductor_B overhead_line_conductor:3;
};

object line_configuration:26 {
conductor_N overhead_line_conductor:3;
spacing line_spacing:17;
conductor_A overhead_line_conductor:3;
conductor_C overhead_line_conductor:3;
};

object line_configuration:27 {
conductor_N underground_line_conductor:4;
spacing line_spacing:17;
conductor_A underground_line_conductor:4;
conductor_C underground_line_conductor:4;
};

object line_configuration:28 {
conductor_N overhead_line_conductor:3;
spacing line_spacing:18;
conductor_C overhead_line_conductor:3;
conductor_B overhead_line_conductor:3;
};

object line_configuration:29 {
spacing line_spacing:16;
conductor_N underground_line_conductor:5;
conductor_A underground_line_conductor:5;
conductor_C underground_line_conductor:5;
conductor_B underground_line_conductor:5;
};

object line_configuration:30 {
spacing line_spacing:16;
conductor_N underground_line_conductor:6;
conductor_A underground_line_conductor:6;
conductor_C underground_line_conductor:6;
conductor_B underground_line_conductor:6;
};

object line_configuration:31 {
conductor_N underground_line_conductor:7;
spacing line_spacing:18;
conductor_C underground_line_conductor:7;
conductor_B underground_line_conductor:7;
};

object line_configuration:32 {
spacing line_spacing:16;
conductor_N overhead_line_conductor:8;
conductor_A overhead_line_conductor:8;
conductor_C overhead_line_conductor:8;
conductor_B overhead_line_conductor:8;
};

object line_configuration:33 {
spacing line_spacing:16;
conductor_N underground_line_conductor:7;
conductor_A underground_line_conductor:7;
conductor_C underground_line_conductor:7;
conductor_B underground_line_conductor:7;
};

object line_configuration:34 {
conductor_N overhead_line_conductor:8;
spacing line_spacing:19;
conductor_A overhead_line_conductor:8;
conductor_B overhead_line_conductor:8;
};

object line_configuration:35 {
conductor_N underground_line_conductor:9;
spacing line_spacing:17;
conductor_A underground_line_conductor:9;
conductor_C underground_line_conductor:9;
};

object line_configuration:36 {
conductor_N overhead_line_conductor:8;
spacing line_spacing:17;
conductor_A overhead_line_conductor:8;
conductor_C overhead_line_conductor:8;
};

object line_configuration:37 {
conductor_N overhead_line_conductor:10;
spacing line_spacing:17;
conductor_A overhead_line_conductor:10;
conductor_C overhead_line_conductor:10;
};

object line_configuration:38 {
conductor_N underground_line_conductor:4;
spacing line_spacing:20;
conductor_C underground_line_conductor:4;
};

object line_configuration:39 {
conductor_N underground_line_conductor:4;
spacing line_spacing:21;
conductor_B underground_line_conductor:4;
};

object line_configuration:40 {
conductor_N overhead_line_conductor:3;
spacing line_spacing:19;
conductor_A overhead_line_conductor:3;
conductor_B overhead_line_conductor:3;
};

object line_configuration:41 {
conductor_N underground_line_conductor:9;
spacing line_spacing:21;
conductor_B underground_line_conductor:9;
};

object line_configuration:42 {
conductor_N underground_line_conductor:4;
spacing line_spacing:22;
conductor_A underground_line_conductor:4;
};

object line_configuration:43 {
conductor_N underground_line_conductor:7;
spacing line_spacing:20;
conductor_C underground_line_conductor:7;
};

object line_configuration:44 {
conductor_N overhead_line_conductor:8;
spacing line_spacing:18;
conductor_C overhead_line_conductor:8;
conductor_B overhead_line_conductor:8;
};

object line_configuration:45 {
spacing line_spacing:16;
conductor_N overhead_line_conductor:11;
conductor_A overhead_line_conductor:11;
conductor_C overhead_line_conductor:11;
conductor_B overhead_line_conductor:11;
};

object line_configuration:46 {
spacing line_spacing:16;
conductor_N underground_line_conductor:4;
conductor_A underground_line_conductor:4;
conductor_C underground_line_conductor:4;
conductor_B underground_line_conductor:4;
};

object line_configuration:47 {
conductor_N underground_line_conductor:7;
spacing line_spacing:21;
conductor_B underground_line_conductor:7;
};

object line_configuration:48 {
conductor_N underground_line_conductor:9;
spacing line_spacing:22;
conductor_A underground_line_conductor:9;
};

object line_configuration:49 {
conductor_N overhead_line_conductor:10;
spacing line_spacing:18;
conductor_C overhead_line_conductor:10;
conductor_B overhead_line_conductor:10;
};

object line_configuration:50 {
conductor_N underground_line_conductor:9;
spacing line_spacing:18;
conductor_C underground_line_conductor:9;
conductor_B underground_line_conductor:9;
};

object line_configuration:51 {
conductor_N underground_line_conductor:9;
spacing line_spacing:20;
conductor_C underground_line_conductor:9;
};

object line_configuration:52 {
conductor_N underground_line_conductor:4;
spacing line_spacing:18;
conductor_C underground_line_conductor:4;
conductor_B underground_line_conductor:4;
};

object line_configuration:53 {
conductor_N underground_line_conductor:4;
spacing line_spacing:19;
conductor_A underground_line_conductor:4;
conductor_B underground_line_conductor:4;
};

object line_configuration:54 {
conductor_N underground_line_conductor:9;
spacing line_spacing:19;
conductor_A underground_line_conductor:9;
conductor_B underground_line_conductor:9;
};

object line_configuration:55 {
conductor_N overhead_line_conductor:8;
spacing line_spacing:21;
conductor_B overhead_line_conductor:8;
};

object line_configuration:56 {
conductor_N overhead_line_conductor:3;
spacing line_spacing:20;
conductor_C overhead_line_conductor:3;
};

object line_configuration:57 {
spacing line_spacing:16;
conductor_N overhead_line_conductor:12;
conductor_A overhead_line_conductor:12;
conductor_C overhead_line_conductor:12;
conductor_B overhead_line_conductor:12;
};

object line_configuration:58 {
conductor_N underground_line_conductor:7;
spacing line_spacing:22;
conductor_A underground_line_conductor:7;
};

object line_configuration:59 {
conductor_N overhead_line_conductor:10;
spacing line_spacing:19;
conductor_A overhead_line_conductor:10;
conductor_B overhead_line_conductor:10;
};

object line_configuration:60 {
spacing line_spacing:16;
conductor_N underground_line_conductor:13;
conductor_A underground_line_conductor:13;
conductor_C underground_line_conductor:13;
conductor_B underground_line_conductor:13;
};

object line_configuration:61 {
spacing line_spacing:23;
conductor_N underground_line_conductor:13;
conductor_A underground_line_conductor:13;
conductor_C underground_line_conductor:13;
conductor_B underground_line_conductor:13;
};

object line_configuration:62 {
spacing line_spacing:16;
conductor_N underground_line_conductor:14;
conductor_A underground_line_conductor:14;
conductor_C underground_line_conductor:14;
conductor_B underground_line_conductor:14;
};

object line_configuration:63 {
conductor_N underground_line_conductor:7;
spacing line_spacing:17;
conductor_A underground_line_conductor:7;
conductor_C underground_line_conductor:7;
};

object line_configuration:64 {
conductor_N underground_line_conductor:7;
spacing line_spacing:19;
conductor_A underground_line_conductor:7;
conductor_B underground_line_conductor:7;
};

object line_configuration:65 {
spacing line_spacing:16;
conductor_N underground_line_conductor:9;
conductor_A underground_line_conductor:9;
conductor_C underground_line_conductor:9;
conductor_B underground_line_conductor:9;
};

object line_configuration:66 {
spacing line_spacing:16;
conductor_N underground_line_conductor:15;
conductor_A underground_line_conductor:15;
conductor_C underground_line_conductor:15;
conductor_B underground_line_conductor:15;
};

object line_configuration:67 {
conductor_N underground_line_conductor:14;
spacing line_spacing:21;
conductor_B underground_line_conductor:14;
};

object line_configuration:68 {
conductor_N underground_line_conductor:14;
spacing line_spacing:17;
conductor_A underground_line_conductor:14;
conductor_C underground_line_conductor:14;
};

object line_configuration:69 {
conductor_N underground_line_conductor:14;
spacing line_spacing:20;
conductor_C underground_line_conductor:14;
};

object line_spacing:16 {
distance_BC 37.0 in;
distance_CN 37.0 in;
distance_AN 37.0 in;
distance_AB 37.0 in;
distance_BN 37.0 in;
distance_AC 37.0 in;
};

object line_spacing:17 {
distance_CN 37.0 in;
distance_AN 37.0 in;
distance_AC 37.0 in;
};

object line_spacing:18 {
distance_CN 37.0 in;
distance_BC 37.0 in;
distance_BN 37.0 in;
};

object line_spacing:19 {
distance_AN 37.0 in;
distance_AB 37.0 in;
distance_BN 37.0 in;
};

object line_spacing:20 {
distance_CN 37.0 in;
};

object line_spacing:21 {
distance_BN 37.0 in;
};

object line_spacing:22 {
distance_AN 37.0 in;
};

object line_spacing:23 {
distance_BC 48.0 in;
distance_CN 36.0 in;
distance_AN 36.0 in;
distance_AB 48.0 in;
distance_BN 36.0 in;
distance_AC 48.0 in;
};

object load:2070 {
phases ABCN;
load_class A;
name R3-12-47-3_load_1;
parent R3-12-47-3_meter_1;
voltage_B -3600-6235j;
voltage_C -3600+6235j;
voltage_A 7200+0.0j;
constant_power_C 0+0j;
constant_power_B 2102.3767+707.6037j;
constant_power_A 2102.3767+707.6037j;
nominal_voltage 7200;
};

object load:2071 {
phases ABN;
load_class A;
name R3-12-47-3_load_2;
parent R3-12-47-3_meter_2;
voltage_B -3600-6235j;
voltage_A 7200+0.0j;
nominal_voltage 7200;
constant_power_B 3478.3754+1170.728j;
constant_power_A 3478.3754+1170.728j;
};

object load:2072 {
phases ABCN;
load_class A;
name R3-12-47-3_load_3;
parent R3-12-47-3_meter_3;
voltage_B -3600-6235j;
voltage_C -3600+6235j;
voltage_A 7200+0.0j;
constant_power_C 0+0j;
constant_power_B 3478.3754+1170.728j;
constant_power_A 3478.3754+1170.728j;
nominal_voltage 7200;
};

object load:2073 {
phases ABCN;
load_class A;
name R3-12-47-3_load_4;
parent R3-12-47-3_meter_4;
voltage_B -3600-6235j;
voltage_C -3600+6235j;
voltage_A 7200+0.0j;
constant_power_C 6956.7509+2341.4559j;
constant_power_B 0+0j;
constant_power_A 6956.7509+2341.4559j;
nominal_voltage 7200;
};

object load:2074 {
phases ABCN;
load_class A;
name R3-12-47-3_load_5;
parent R3-12-47-3_meter_5;
voltage_B -3600-6235j;
voltage_C -3600+6235j;
voltage_A 7200+0.0j;
constant_power_C 6956.7509+2341.4559j;
constant_power_B 6956.7509+2341.4559j;
constant_power_A 6956.7509+2341.4559j;
nominal_voltage 7200;
};

object load:2075 {
phases ACN;
load_class A;
name R3-12-47-3_load_6;
parent R3-12-47-3_meter_6;
voltage_C -3600+6235j;
voltage_A 7200+0.0j;
constant_power_C 4190.0561+1410.2606j;
constant_power_A 4190.0561+1410.2606j;
nominal_voltage 7200;
};

object load:2076 {
phases ACN;
load_class A;
name R3-12-47-3_load_7;
parent R3-12-47-3_meter_7;
voltage_C -3600+6235j;
voltage_A 7200+0.0j;
constant_power_C 3478.3754+1170.728j;
constant_power_A 3478.3754+1170.728j;
nominal_voltage 7200;
};

object load:2077 {
phases ABCN;
load_class A;
name R3-12-47-3_load_8;
parent R3-12-47-3_meter_8;
voltage_B -3600-6235j;
voltage_C -3600+6235j;
voltage_A 7200+0.0j;
constant_power_C 4190.0561+1410.2606j;
constant_power_B 4190.0561+1410.2606j;
constant_power_A 4190.0561+1410.2606j;
nominal_voltage 7200;
};

object load:2078 {
phases ACN;
load_class A;
name R3-12-47-3_load_9;
parent R3-12-47-3_meter_9;
voltage_C -3600+6235j;
voltage_A 7200+0.0j;
constant_power_C 1376.0063+463.1269j;
constant_power_A 1376.0063+463.1269j;
nominal_voltage 7200;
};

object load:2079 {
phases ACN;
load_class A;
name R3-12-47-3_load_10;
parent R3-12-47-3_meter_10;
voltage_C -3600+6235j;
voltage_A 7200+0.0j;
constant_power_C 3478.3754+1170.728j;
constant_power_A 3478.3754+1170.728j;
nominal_voltage 7200;
};

object load:2080 {
phases ACN;
load_class A;
name R3-12-47-3_load_11;
parent R3-12-47-3_meter_11;
voltage_C -3600+6235j;
voltage_A 7200+0.0j;
constant_power_C 2102.3767+707.6037j;
constant_power_A 2102.3767+707.6037j;
nominal_voltage 7200;
};

object load:2081 {
phases ACN;
load_class A;
name R3-12-47-3_load_12;
parent R3-12-47-3_meter_12;
voltage_C -3600+6235j;
voltage_A 7200+0.0j;
constant_power_C 3478.3754+1170.728j;
constant_power_A 3478.3754+1170.728j;
nominal_voltage 7200;
};

object load:2082 {
phases ACN;
load_class A;
name R3-12-47-3_load_13;
parent R3-12-47-3_meter_13;
voltage_C -3600+6235j;
voltage_A 7200+0.0j;
constant_power_C 1376.0063+463.1269j;
constant_power_A 1376.0063+463.1269j;
nominal_voltage 7200;
};

object load:2083 {
phases ACN;
load_class A;
name R3-12-47-3_load_14;
parent R3-12-47-3_meter_14;
voltage_C -3600+6235j;
voltage_A 7200+0.0j;
constant_power_C 3478.3754+1170.728j;
constant_power_A 3478.3754+1170.728j;
nominal_voltage 7200;
};

object load:2084 {
phases ABCN;
load_class A;
name R3-12-47-3_load_15;
parent R3-12-47-3_meter_15;
voltage_B -3600-6235j;
voltage_C -3600+6235j;
voltage_A 7200+0.0j;
constant_power_C 1376.0063+463.1269j;
constant_power_B 0+0j;
constant_power_A 1376.0063+463.1269j;
nominal_voltage 7200;
};

object load:2085 {
phases ACN;
load_class A;
name R3-12-47-3_load_16;
parent R3-12-47-3_meter_16;
voltage_C -3600+6235j;
voltage_A 7200+0.0j;
constant_power_C 6956.7509+2341.4559j;
constant_power_A 6956.7509+2341.4559j;
nominal_voltage 7200;
};

object load:2086 {
phases ACN;
load_class A;
name R3-12-47-3_load_17;
parent R3-12-47-3_meter_17;
voltage_C -3600+6235j;
voltage_A 7200+0.0j;
constant_power_C 6964.1087+2343.9324j;
constant_power_A 6964.1087+2343.9324j;
nominal_voltage 7200;
};

object load:2087 {
phases ACN;
load_class A;
name R3-12-47-3_load_18;
parent R3-12-47-3_meter_18;
voltage_C -3600+6235j;
voltage_A 7200+0.0j;
constant_power_C 10458.7835+3520.1463j;
constant_power_A 10458.7835+3520.1463j;
nominal_voltage 7200;
};

object load:2088 {
phases ACN;
load_class A;
name R3-12-47-3_load_19;
parent R3-12-47-3_meter_19;
voltage_C -3600+6235j;
voltage_A 7200+0.0j;
constant_power_C 3478.3754+1170.728j;
constant_power_A 3478.3754+1170.728j;
nominal_voltage 7200;
};

object load:2089 {
phases ACN;
load_class A;
name R3-12-47-3_load_20;
parent R3-12-47-3_meter_20;
voltage_C -3600+6235j;
voltage_A 7200+0.0j;
constant_power_C 3478.3754+1170.728j;
constant_power_A 3478.3754+1170.728j;
nominal_voltage 7200;
};

object load:2090 {
phases ACN;
load_class A;
name R3-12-47-3_load_21;
parent R3-12-47-3_meter_21;
voltage_C -3600+6235j;
voltage_A 7200+0.0j;
constant_power_C 3478.3754+1170.728j;
constant_power_A 3478.3754+1170.728j;
nominal_voltage 7200;
};

object load:2091 {
phases ACN;
load_class A;
name R3-12-47-3_load_22;
parent R3-12-47-3_meter_22;
voltage_C -3600+6235j;
voltage_A 7200+0.0j;
constant_power_C 3478.3754+1170.728j;
constant_power_A 3478.3754+1170.728j;
nominal_voltage 7200;
};

object load:2092 {
phases ACN;
load_class A;
name R3-12-47-3_load_23;
parent R3-12-47-3_meter_23;
voltage_C -3600+6235j;
voltage_A 7200+0.0j;
constant_power_C 3478.3754+1170.728j;
constant_power_A 3478.3754+1170.728j;
nominal_voltage 7200;
};

object load:2093 {
phases ACN;
load_class A;
name R3-12-47-3_load_24;
parent R3-12-47-3_meter_24;
voltage_C -3600+6235j;
voltage_A 7200+0.0j;
constant_power_C 3478.3754+1170.728j;
constant_power_A 3478.3754+1170.728j;
nominal_voltage 7200;
};

object load:2094 {
phases ACN;
load_class A;
name R3-12-47-3_load_25;
parent R3-12-47-3_meter_25;
voltage_C -3600+6235j;
voltage_A 7200+0.0j;
constant_power_C 3478.3754+1170.728j;
constant_power_A 3478.3754+1170.728j;
nominal_voltage 7200;
};

object load:2095 {
phases ACN;
load_class A;
name R3-12-47-3_load_26;
parent R3-12-47-3_meter_26;
voltage_C -3600+6235j;
voltage_A 7200+0.0j;
constant_power_C 3482.0544+1171.9662j;
constant_power_A 3482.0544+1171.9662j;
nominal_voltage 7200;
};

object load:2096 {
phases ACN;
load_class A;
name R3-12-47-3_load_27;
parent R3-12-47-3_meter_27;
voltage_C -3600+6235j;
voltage_A 7200+0.0j;
constant_power_C 1376.0063+463.1269j;
constant_power_A 1376.0063+463.1269j;
nominal_voltage 7200;
};

object load:2097 {
phases ACN;
load_class A;
name R3-12-47-3_load_28;
parent R3-12-47-3_meter_28;
voltage_C -3600+6235j;
voltage_A 7200+0.0j;
constant_power_C 3478.3754+1170.728j;
constant_power_A 3478.3754+1170.728j;
nominal_voltage 7200;
};

object load:2098 {
phases ACN;
load_class A;
name R3-12-47-3_load_29;
parent R3-12-47-3_meter_29;
voltage_C -3600+6235j;
voltage_A 7200+0.0j;
constant_power_C 10458.7835+3520.1463j;
constant_power_A 10458.7835+3520.1463j;
nominal_voltage 7200;
};

object load:2099 {
phases ACN;
load_class A;
name R3-12-47-3_load_30;
parent R3-12-47-3_meter_30;
voltage_C -3600+6235j;
voltage_A 7200+0.0j;
constant_power_C 3478.3754+1170.728j;
constant_power_A 3478.3754+1170.728j;
nominal_voltage 7200;
};

object load:2100 {
phases ACN;
load_class A;
name R3-12-47-3_load_31;
parent R3-12-47-3_meter_31;
voltage_C -3600+6235j;
voltage_A 7200+0.0j;
constant_power_C 3478.3754+1170.728j;
constant_power_A 3478.3754+1170.728j;
nominal_voltage 7200;
};

object load:2101 {
phases ACN;
load_class A;
name R3-12-47-3_load_32;
parent R3-12-47-3_meter_32;
voltage_C -3600+6235j;
voltage_A 7200+0.0j;
constant_power_C 3478.3754+1170.728j;
constant_power_A 3478.3754+1170.728j;
nominal_voltage 7200;
};

object load:2102 {
phases ACN;
load_class A;
name R3-12-47-3_load_33;
parent R3-12-47-3_meter_33;
voltage_C -3600+6235j;
voltage_A 7200+0.0j;
constant_power_C 3478.3754+1170.728j;
constant_power_A 3478.3754+1170.728j;
nominal_voltage 7200;
};

object load:2103 {
phases ABCN;
load_class A;
name R3-12-47-3_load_34;
parent R3-12-47-3_meter_34;
voltage_B -3600-6235j;
voltage_C -3600+6235j;
voltage_A 7200+0.0j;
constant_power_C 0+0j;
constant_power_B 3478.3754+1170.728j;
constant_power_A 3478.3754+1170.728j;
nominal_voltage 7200;
};

object load:2104 {
phases ACN;
load_class A;
name R3-12-47-3_load_35;
parent R3-12-47-3_meter_35;
voltage_C -3600+6235j;
voltage_A 7200+0.0j;
constant_power_C 3478.3754+1170.728j;
constant_power_A 3478.3754+1170.728j;
nominal_voltage 7200;
};

object load:2105 {
phases ACN;
load_class A;
name R3-12-47-3_load_36;
parent R3-12-47-3_meter_36;
voltage_C -3600+6235j;
voltage_A 7200+0.0j;
constant_power_C 3478.3754+1170.728j;
constant_power_A 3478.3754+1170.728j;
nominal_voltage 7200;
};

object load:2106 {
phases ABCN;
load_class A;
name R3-12-47-3_load_37;
parent R3-12-47-3_meter_37;
voltage_B -3600-6235j;
voltage_C -3600+6235j;
voltage_A 7200+0.0j;
constant_power_C 6956.7509+2341.4559j;
constant_power_B 0+0j;
constant_power_A 6956.7509+2341.4559j;
nominal_voltage 7200;
};

object load:2107 {
phases ABCN;
load_class A;
name R3-12-47-3_load_38;
parent R3-12-47-3_meter_38;
voltage_B -3600-6235j;
voltage_C -3600+6235j;
voltage_A 7200+0.0j;
constant_power_C 4190.0561+1410.2606j;
constant_power_B 4190.0561+1410.2606j;
constant_power_A 4190.0561+1410.2606j;
nominal_voltage 7200;
};

object load:2108 {
phases ABN;
load_class A;
name R3-12-47-3_load_39;
parent R3-12-47-3_meter_39;
voltage_B -3600-6235j;
voltage_A 7200+0.0j;
nominal_voltage 7200;
constant_power_B 3478.3754+1170.728j;
constant_power_A 3478.3754+1170.728j;
};

object load:2109 {
phases ABCN;
load_class A;
name R3-12-47-3_load_40;
parent R3-12-47-3_meter_40;
voltage_B -3600-6235j;
voltage_C -3600+6235j;
voltage_A 7200+0.0j;
constant_power_C 3478.3754+1170.728j;
constant_power_B 0+0j;
constant_power_A 3478.3754+1170.728j;
nominal_voltage 7200;
};

object load:2110 {
phases ABCN;
load_class A;
name R3-12-47-3_load_41;
parent R3-12-47-3_meter_41;
voltage_B -3600-6235j;
voltage_C -3600+6235j;
voltage_A 7200+0.0j;
constant_power_C 1376.0063+463.1269j;
constant_power_B 0+0j;
constant_power_A 1376.0063+463.1269j;
nominal_voltage 7200;
};

object load:2111 {
phases ABCN;
load_class A;
name R3-12-47-3_load_42;
parent R3-12-47-3_meter_42;
voltage_B -3600-6235j;
voltage_C -3600+6235j;
voltage_A 7200+0.0j;
constant_power_C 3478.3754+1170.728j;
constant_power_B 0+0j;
constant_power_A 3478.3754+1170.728j;
nominal_voltage 7200;
};

object load:2112 {
phases ABCN;
load_class A;
name R3-12-47-3_load_43;
parent R3-12-47-3_meter_43;
voltage_B -3600-6235j;
voltage_C -3600+6235j;
voltage_A 7200+0.0j;
constant_power_C 13922.4777+4685.9329j;
constant_power_B 13922.4777+4685.9329j;
constant_power_A 13922.4777+4685.9329j;
nominal_voltage 7200;
};

object load:2113 {
phases ABN;
load_class A;
name R3-12-47-3_load_44;
parent R3-12-47-3_meter_44;
voltage_B -3600-6235j;
voltage_A 7200+0.0j;
nominal_voltage 7200;
constant_power_B 3478.3754+1170.728j;
constant_power_A 3478.3754+1170.728j;
};

object load:2114 {
phases ABCN;
load_class A;
name R3-12-47-3_load_45;
parent R3-12-47-3_meter_45;
voltage_B -3600-6235j;
voltage_C -3600+6235j;
voltage_A 7200+0.0j;
constant_power_C 3478.3754+1170.728j;
constant_power_B 0+0j;
constant_power_A 3478.3754+1170.728j;
nominal_voltage 7200;
};

object load:2115 {
phases ABCN;
load_class A;
name R3-12-47-3_load_46;
parent R3-12-47-3_meter_46;
voltage_B -3600-6235j;
voltage_C -3600+6235j;
voltage_A 7200+0.0j;
constant_power_C 3478.3754+1170.728j;
constant_power_B 3478.3754+1170.728j;
constant_power_A 0+0j;
nominal_voltage 7200;
};

object load:2116 {
phases ABCN;
load_class A;
name R3-12-47-3_load_47;
parent R3-12-47-3_meter_47;
voltage_B -3600-6235j;
voltage_C -3600+6235j;
voltage_A 7200+0.0j;
constant_power_C 1376.0063+463.1269j;
constant_power_B 0+0j;
constant_power_A 1376.0063+463.1269j;
nominal_voltage 7200;
};

object load:2117 {
phases ABCN;
load_class A;
name R3-12-47-3_load_48;
parent R3-12-47-3_meter_48;
voltage_B -3600-6235j;
voltage_C -3600+6235j;
voltage_A 7200+0.0j;
constant_power_C 2102.3767+707.6037j;
constant_power_B 2102.3767+707.6037j;
constant_power_A 0+0j;
nominal_voltage 7200;
};

object load:2118 {
phases ABCN;
load_class A;
name R3-12-47-3_load_49;
parent R3-12-47-3_meter_49;
voltage_B -3600-6235j;
voltage_C -3600+6235j;
voltage_A 7200+0.0j;
constant_power_C 3478.3754+1170.728j;
constant_power_B 0+0j;
constant_power_A 3478.3754+1170.728j;
nominal_voltage 7200;
};

object load:2119 {
phases ABCN;
load_class A;
name R3-12-47-3_load_50;
parent R3-12-47-3_meter_50;
voltage_B -3600-6235j;
voltage_C -3600+6235j;
voltage_A 7200+0.0j;
constant_power_C 3478.3754+1170.728j;
constant_power_B 0+0j;
constant_power_A 3478.3754+1170.728j;
nominal_voltage 7200;
};

object load:2120 {
phases ABCN;
load_class A;
name R3-12-47-3_load_51;
parent R3-12-47-3_meter_51;
voltage_B -3600-6235j;
voltage_C -3600+6235j;
voltage_A 7200+0.0j;
constant_power_C 3478.3754+1170.728j;
constant_power_B 3478.3754+1170.728j;
constant_power_A 0+0j;
nominal_voltage 7200;
};

object load:2121 {
phases ABCN;
load_class A;
name R3-12-47-3_load_52;
parent R3-12-47-3_meter_52;
voltage_B -3600-6235j;
voltage_C -3600+6235j;
voltage_A 7200+0.0j;
constant_power_C 3478.3754+1170.728j;
constant_power_B 3478.3754+1170.728j;
constant_power_A 0+0j;
nominal_voltage 7200;
};

object load:2122 {
phases ABCN;
load_class A;
name R3-12-47-3_load_53;
parent R3-12-47-3_meter_53;
voltage_B -3600-6235j;
voltage_C -3600+6235j;
voltage_A 7200+0.0j;
constant_power_C 2790.3751+939.1655j;
constant_power_B 2790.3751+939.1655j;
constant_power_A 2790.3751+939.1655j;
nominal_voltage 7200;
};

object load:2123 {
phases ABCN;
load_class A;
name R3-12-47-3_load_54;
parent R3-12-47-3_meter_54;
voltage_B -3600-6235j;
voltage_C -3600+6235j;
voltage_A 7200+0.0j;
constant_power_C 3478.3754+1170.728j;
constant_power_B 3478.3754+1170.728j;
constant_power_A 0+0j;
nominal_voltage 7200;
};

object load:2124 {
phases ABCN;
load_class A;
name R3-12-47-3_load_55;
parent R3-12-47-3_meter_55;
voltage_B -3600-6235j;
voltage_C -3600+6235j;
voltage_A 7200+0.0j;
constant_power_C 2102.3767+707.6037j;
constant_power_B 2102.3767+707.6037j;
constant_power_A 0+0j;
nominal_voltage 7200;
};

object load:2125 {
phases CN;
load_class A;
name R3-12-47-3_load_56;
parent R3-12-47-3_meter_56;
voltage_C -3600+6235j;
constant_power_C 6956.7509+2341.4559j;
nominal_voltage 7200;
};

object load:2126 {
phases BN;
load_class A;
name R3-12-47-3_load_57;
parent R3-12-47-3_meter_57;
voltage_B -3600-6235j;
nominal_voltage 7200;
constant_power_B 6956.7509+2341.4559j;
};

object load:2127 {
phases BN;
load_class A;
name R3-12-47-3_load_58;
parent R3-12-47-3_meter_58;
voltage_B -3600-6235j;
nominal_voltage 7200;
constant_power_B 6956.7509+2341.4559j;
};

object load:2128 {
phases ABN;
load_class A;
name R3-12-47-3_load_59;
parent R3-12-47-3_meter_59;
voltage_B -3600-6235j;
voltage_A 7200+0.0j;
nominal_voltage 7200;
constant_power_B 6956.7509+2341.4559j;
constant_power_A 6956.7509+2341.4559j;
};

object load:2129 {
phases ABCN;
load_class A;
name R3-12-47-3_load_60;
parent R3-12-47-3_meter_60;
voltage_B -3600-6235j;
voltage_C -3600+6235j;
voltage_A 7200+0.0j;
constant_power_C 3478.3754+1170.728j;
constant_power_B 0+0j;
constant_power_A 3478.3754+1170.728j;
nominal_voltage 7200;
};

object load:2130 {
phases ABN;
load_class A;
name R3-12-47-3_load_61;
parent R3-12-47-3_meter_61;
voltage_B -3600-6235j;
voltage_A 7200+0.0j;
nominal_voltage 7200;
constant_power_B 3478.3754+1170.728j;
constant_power_A 3478.3754+1170.728j;
};

object load:2131 {
phases ABN;
load_class A;
name R3-12-47-3_load_62;
parent R3-12-47-3_meter_62;
voltage_B -3600-6235j;
voltage_A 7200+0.0j;
nominal_voltage 7200;
constant_power_B 3478.3754+1170.728j;
constant_power_A 3478.3754+1170.728j;
};

object load:2132 {
phases ABCN;
load_class A;
name R3-12-47-3_load_63;
parent R3-12-47-3_meter_63;
voltage_B -3600-6235j;
voltage_C -3600+6235j;
voltage_A 7200+0.0j;
constant_power_C 2790.3751+939.1655j;
constant_power_B 2790.3751+939.1655j;
constant_power_A 2790.3751+939.1655j;
nominal_voltage 7200;
};

object load:2133 {
phases ABCN;
load_class A;
name R3-12-47-3_load_64;
parent R3-12-47-3_meter_64;
voltage_B -3600-6235j;
voltage_C -3600+6235j;
voltage_A 7200+0.0j;
constant_power_C 3478.3754+1170.728j;
constant_power_B 3478.3754+1170.728j;
constant_power_A 0+0j;
nominal_voltage 7200;
};

object load:2134 {
phases ACN;
load_class A;
name R3-12-47-3_load_65;
parent R3-12-47-3_meter_65;
voltage_C -3600+6235j;
voltage_A 7200+0.0j;
constant_power_C 3478.3754+1170.728j;
constant_power_A 3478.3754+1170.728j;
nominal_voltage 7200;
};

object load:2135 {
phases ABN;
load_class A;
name R3-12-47-3_load_66;
parent R3-12-47-3_meter_66;
voltage_B -3600-6235j;
voltage_A 7200+0.0j;
nominal_voltage 7200;
constant_power_B 3478.3754+1170.728j;
constant_power_A 3478.3754+1170.728j;
};

object load:2136 {
phases ABN;
load_class A;
name R3-12-47-3_load_67;
parent R3-12-47-3_meter_67;
voltage_B -3600-6235j;
voltage_A 7200+0.0j;
nominal_voltage 7200;
constant_power_B 2102.3767+707.6037j;
constant_power_A 2102.3767+707.6037j;
};

object load:2137 {
phases ABN;
load_class A;
name R3-12-47-3_load_68;
parent R3-12-47-3_meter_68;
voltage_B -3600-6235j;
voltage_A 7200+0.0j;
nominal_voltage 7200;
constant_power_B 3478.3754+1170.728j;
constant_power_A 3478.3754+1170.728j;
};

object load:2138 {
phases BCN;
load_class A;
name R3-12-47-3_load_69;
parent R3-12-47-3_meter_69;
voltage_B -3600-6235j;
voltage_C -3600+6235j;
constant_power_C 3478.3754+1170.728j;
constant_power_B 3478.3754+1170.728j;
nominal_voltage 7200;
};

object load:2139 {
phases ABCN;
load_class A;
name R3-12-47-3_load_70;
parent R3-12-47-3_meter_70;
voltage_B -3600-6235j;
voltage_C -3600+6235j;
voltage_A 7200+0.0j;
constant_power_C 6956.7509+2341.4559j;
constant_power_B 6956.7509+2341.4559j;
constant_power_A 6956.7509+2341.4559j;
nominal_voltage 7200;
};

object load:2140 {
phases ABCN;
load_class A;
name R3-12-47-3_load_71;
parent R3-12-47-3_meter_71;
voltage_B -3600-6235j;
voltage_C -3600+6235j;
voltage_A 7200+0.0j;
constant_power_C 20902.8902+7035.3527j;
constant_power_B 20902.8902+7035.3527j;
constant_power_A 20902.8902+7035.3527j;
nominal_voltage 7200;
};

object load:2141 {
phases ACN;
load_class A;
name R3-12-47-3_load_72;
parent R3-12-47-3_meter_72;
voltage_C -3600+6235j;
voltage_A 7200+0.0j;
constant_power_C 3478.3754+1170.728j;
constant_power_A 3478.3754+1170.728j;
nominal_voltage 7200;
};

object load:2142 {
phases ABCN;
load_class A;
name R3-12-47-3_load_73;
parent R3-12-47-3_meter_73;
voltage_B -3600-6235j;
voltage_C -3600+6235j;
voltage_A 7200+0.0j;
constant_power_C 10458.7835+3520.1463j;
constant_power_B 0+0j;
constant_power_A 10458.7835+3520.1463j;
nominal_voltage 7200;
};

object load:2143 {
phases ABCN;
load_class A;
name R3-12-47-3_load_74;
parent R3-12-47-3_meter_74;
voltage_B -3600-6235j;
voltage_C -3600+6235j;
voltage_A 7200+0.0j;
constant_power_C 3478.3754+1170.728j;
constant_power_B 0+0j;
constant_power_A 3478.3754+1170.728j;
nominal_voltage 7200;
};

object load:2144 {
phases BCN;
load_class A;
name R3-12-47-3_load_75;
parent R3-12-47-3_meter_75;
voltage_B -3600-6235j;
voltage_C -3600+6235j;
constant_power_C 0+0j;
constant_power_B 6956.7509+2341.4559j;
nominal_voltage 7200;
};

object load:2145 {
phases ABCN;
load_class A;
name R3-12-47-3_load_76;
parent R3-12-47-3_meter_76;
voltage_B -3600-6235j;
voltage_C -3600+6235j;
voltage_A 7200+0.0j;
constant_power_C 0+0j;
constant_power_B 3478.3754+1170.728j;
constant_power_A 3478.3754+1170.728j;
nominal_voltage 7200;
};

object load:2146 {
phases BCN;
load_class A;
name R3-12-47-3_load_77;
parent R3-12-47-3_meter_77;
voltage_B -3600-6235j;
voltage_C -3600+6235j;
constant_power_C 3478.3754+1170.728j;
constant_power_B 3478.3754+1170.728j;
nominal_voltage 7200;
};

object load:2147 {
phases ABCN;
load_class A;
name R3-12-47-3_load_78;
parent R3-12-47-3_meter_78;
voltage_B -3600-6235j;
voltage_C -3600+6235j;
voltage_A 7200+0.0j;
constant_power_C 27859.6244+9376.803j;
constant_power_B 27859.6244+9376.803j;
constant_power_A 27859.6244+9376.803j;
nominal_voltage 7200;
};

object load:2148 {
phases ABCN;
load_class A;
name R3-12-47-3_load_79;
parent R3-12-47-3_meter_79;
voltage_B -3600-6235j;
voltage_C -3600+6235j;
voltage_A 7200+0.0j;
constant_power_C 6956.7509+2341.4559j;
constant_power_B 6956.7509+2341.4559j;
constant_power_A 6956.7509+2341.4559j;
nominal_voltage 7200;
};

object load:2149 {
phases ABCN;
load_class A;
name R3-12-47-3_load_80;
parent R3-12-47-3_meter_80;
voltage_B -3600-6235j;
voltage_C -3600+6235j;
voltage_A 7200+0.0j;
constant_power_C 4190.0561+1410.2606j;
constant_power_B 4190.0561+1410.2606j;
constant_power_A 4190.0561+1410.2606j;
nominal_voltage 7200;
};

object load:2150 {
phases ABCN;
load_class A;
name R3-12-47-3_load_81;
parent R3-12-47-3_meter_81;
voltage_B -3600-6235j;
voltage_C -3600+6235j;
voltage_A 7200+0.0j;
constant_power_C 0+0j;
constant_power_B 3478.3754+1170.728j;
constant_power_A 3478.3754+1170.728j;
nominal_voltage 7200;
};

object load:2151 {
phases ABCN;
load_class A;
name R3-12-47-3_load_82;
parent R3-12-47-3_meter_82;
voltage_B -3600-6235j;
voltage_C -3600+6235j;
voltage_A 7200+0.0j;
constant_power_C 6956.7509+2341.4559j;
constant_power_B 0+0j;
constant_power_A 6956.7509+2341.4559j;
nominal_voltage 7200;
};

object load:2152 {
phases ABCN;
load_class A;
name R3-12-47-3_load_83;
parent R3-12-47-3_meter_83;
voltage_B -3600-6235j;
voltage_C -3600+6235j;
voltage_A 7200+0.0j;
constant_power_C 4190.0561+1410.2606j;
constant_power_B 4190.0561+1410.2606j;
constant_power_A 4190.0561+1410.2606j;
nominal_voltage 7200;
};

object load:2153 {
phases ABCN;
load_class A;
name R3-12-47-3_load_84;
parent R3-12-47-3_meter_84;
voltage_B -3600-6235j;
voltage_C -3600+6235j;
voltage_A 7200+0.0j;
constant_power_C 6956.7509+2341.4559j;
constant_power_B 6956.7509+2341.4559j;
constant_power_A 6956.7509+2341.4559j;
nominal_voltage 7200;
};

object load:2154 {
phases ABCN;
load_class A;
name R3-12-47-3_load_85;
parent R3-12-47-3_meter_85;
voltage_B -3600-6235j;
voltage_C -3600+6235j;
voltage_A 7200+0.0j;
constant_power_C 3478.3754+1170.728j;
constant_power_B 3478.3754+1170.728j;
constant_power_A 0+0j;
nominal_voltage 7200;
};

object load:2155 {
phases ABCN;
load_class A;
name R3-12-47-3_load_86;
parent R3-12-47-3_meter_86;
voltage_B -3600-6235j;
voltage_C -3600+6235j;
voltage_A 7200+0.0j;
constant_power_C 6956.7509+2341.4559j;
constant_power_B 6956.7509+2341.4559j;
constant_power_A 6956.7509+2341.4559j;
nominal_voltage 7200;
};

object load:2156 {
phases BCN;
load_class A;
name R3-12-47-3_load_87;
parent R3-12-47-3_meter_87;
voltage_B -3600-6235j;
voltage_C -3600+6235j;
constant_power_C 10458.7835+3520.1463j;
constant_power_B 10458.7835+3520.1463j;
nominal_voltage 7200;
};

object load:2157 {
phases ACN;
load_class A;
name R3-12-47-3_load_88;
parent R3-12-47-3_meter_88;
voltage_C -3600+6235j;
voltage_A 7200+0.0j;
constant_power_C 3478.3754+1170.728j;
constant_power_A 3478.3754+1170.728j;
nominal_voltage 7200;
};

object load:2158 {
phases ACN;
load_class A;
name R3-12-47-3_load_89;
parent R3-12-47-3_meter_89;
voltage_C -3600+6235j;
voltage_A 7200+0.0j;
constant_power_C 3478.3754+1170.728j;
constant_power_A 3478.3754+1170.728j;
nominal_voltage 7200;
};

object load:2159 {
phases ACN;
load_class A;
name R3-12-47-3_load_90;
parent R3-12-47-3_meter_90;
voltage_C -3600+6235j;
voltage_A 7200+0.0j;
constant_power_C 3478.3754+1170.728j;
constant_power_A 3478.3754+1170.728j;
nominal_voltage 7200;
};

object load:2160 {
phases ACN;
load_class A;
name R3-12-47-3_load_91;
parent R3-12-47-3_meter_91;
voltage_C -3600+6235j;
voltage_A 7200+0.0j;
constant_power_C 1376.0063+463.1269j;
constant_power_A 1376.0063+463.1269j;
nominal_voltage 7200;
};

object load:2161 {
phases ABN;
load_class A;
name R3-12-47-3_load_92;
parent R3-12-47-3_meter_92;
voltage_B -3600-6235j;
voltage_A 7200+0.0j;
nominal_voltage 7200;
constant_power_B 3478.3754+1170.728j;
constant_power_A 3478.3754+1170.728j;
};

object load:2162 {
phases ABN;
load_class A;
name R3-12-47-3_load_93;
parent R3-12-47-3_meter_93;
voltage_B -3600-6235j;
voltage_A 7200+0.0j;
nominal_voltage 7200;
constant_power_B 3478.3754+1170.728j;
constant_power_A 3478.3754+1170.728j;
};

object load:2163 {
phases ABN;
load_class A;
name R3-12-47-3_load_94;
parent R3-12-47-3_meter_94;
voltage_B -3600-6235j;
voltage_A 7200+0.0j;
nominal_voltage 7200;
constant_power_B 3478.3754+1170.728j;
constant_power_A 3478.3754+1170.728j;
};

object load:2164 {
phases ABN;
load_class A;
name R3-12-47-3_load_95;
parent R3-12-47-3_meter_95;
voltage_B -3600-6235j;
voltage_A 7200+0.0j;
nominal_voltage 7200;
constant_power_B 3478.3754+1170.728j;
constant_power_A 3478.3754+1170.728j;
};

object load:2165 {
phases ABN;
load_class A;
name R3-12-47-3_load_96;
parent R3-12-47-3_meter_96;
voltage_B -3600-6235j;
voltage_A 7200+0.0j;
nominal_voltage 7200;
constant_power_B 6956.7509+2341.4559j;
constant_power_A 6956.7509+2341.4559j;
};

object load:2166 {
phases ABN;
load_class A;
name R3-12-47-3_load_97;
parent R3-12-47-3_meter_97;
voltage_B -3600-6235j;
voltage_A 7200+0.0j;
nominal_voltage 7200;
constant_power_B 3478.3754+1170.728j;
constant_power_A 3478.3754+1170.728j;
};

object load:2167 {
phases ABN;
load_class A;
name R3-12-47-3_load_98;
parent R3-12-47-3_meter_98;
voltage_B -3600-6235j;
voltage_A 7200+0.0j;
nominal_voltage 7200;
constant_power_B 3478.3754+1170.728j;
constant_power_A 3478.3754+1170.728j;
};

object load:2168 {
phases BCN;
load_class A;
name R3-12-47-3_load_99;
parent R3-12-47-3_meter_99;
voltage_B -3600-6235j;
voltage_C -3600+6235j;
constant_power_C 1376.0063+463.1269j;
constant_power_B 1376.0063+463.1269j;
nominal_voltage 7200;
};

object load:2169 {
phases BCN;
load_class A;
name R3-12-47-3_load_100;
parent R3-12-47-3_meter_100;
voltage_B -3600-6235j;
voltage_C -3600+6235j;
constant_power_C 1376.0063+463.1269j;
constant_power_B 1376.0063+463.1269j;
nominal_voltage 7200;
};

object load:2170 {
phases BCN;
load_class A;
name R3-12-47-3_load_101;
parent R3-12-47-3_meter_101;
voltage_B -3600-6235j;
voltage_C -3600+6235j;
constant_power_C 3478.3754+1170.728j;
constant_power_B 3478.3754+1170.728j;
nominal_voltage 7200;
};

object load:2171 {
phases ACN;
load_class A;
name R3-12-47-3_load_102;
parent R3-12-47-3_meter_102;
voltage_C -3600+6235j;
voltage_A 7200+0.0j;
constant_power_C 1376.0063+463.1269j;
constant_power_A 1376.0063+463.1269j;
nominal_voltage 7200;
};

object load:2172 {
phases ABCN;
load_class A;
name R3-12-47-3_load_103;
parent R3-12-47-3_meter_103;
voltage_B -3600-6235j;
voltage_C -3600+6235j;
voltage_A 7200+0.0j;
constant_power_C 6956.7509+2341.4559j;
constant_power_B 6956.7509+2341.4559j;
constant_power_A 6956.7509+2341.4559j;
nominal_voltage 7200;
};

object load:2173 {
phases ABCN;
load_class A;
name R3-12-47-3_load_104;
parent R3-12-47-3_meter_104;
voltage_B -3600-6235j;
voltage_C -3600+6235j;
voltage_A 7200+0.0j;
constant_power_C 3478.3754+1170.728j;
constant_power_B 0+0j;
constant_power_A 3478.3754+1170.728j;
nominal_voltage 7200;
};

object load:2174 {
phases BCN;
load_class A;
name R3-12-47-3_load_105;
parent R3-12-47-3_meter_105;
voltage_B -3600-6235j;
voltage_C -3600+6235j;
constant_power_C 1376.0063+463.1269j;
constant_power_B 1376.0063+463.1269j;
nominal_voltage 7200;
};

object load:2175 {
phases ABCN;
load_class A;
name R3-12-47-3_load_106;
parent R3-12-47-3_meter_106;
voltage_B -3600-6235j;
voltage_C -3600+6235j;
voltage_A 7200+0.0j;
constant_power_C 4190.0561+1410.2606j;
constant_power_B 4190.0561+1410.2606j;
constant_power_A 4190.0561+1410.2606j;
nominal_voltage 7200;
};

object load:2176 {
phases ABCN;
load_class A;
name R3-12-47-3_load_107;
parent R3-12-47-3_meter_107;
voltage_B -3600-6235j;
voltage_C -3600+6235j;
voltage_A 7200+0.0j;
constant_power_C 3478.3754+1170.728j;
...